Circuit: * C:\Users\KeithH\eagle\DEC340\xtra\diffAmp.asc

Direct Newton iteration for .op point succeeded.

Date: Tue Aug 14 10:47:17 2018
Total elapsed time: 0.056 seconds.

tnom = 27
temp = 27
method = modified trap
totiter = 4842
traniter = 4834
tranpoints = 2410
accept = 2159
rejected = 251
matrix size = 17
fillins = 0
solver = Normal
Matrix Compiler1: 1.11 KB object code size  0.2/0.1/[0.1]
Matrix Compiler2: off  [0.1]/0.1/0.1

