Circuit: * C:\Users\KeithH\eagle\DEC340\xtra\LTspice\follow_hold.asc

Direct Newton iteration failed to find .op point.  (Use ".option noopiter" to skip.)
Starting Gmin stepping
Gmin = 10
Gmin = 1.07374
Gmin = 0.115292
Gmin = 0.0123794
Gmin = 0.00132923
Gmin = 0.000142725
Gmin = 1.5325e-005
vernier = 0.5
vernier = 0.25
vernier = 0.125
Gmin = 4.01735e-006
vernier = 0.166667
Gmin = 2.80851e-006
vernier = 0.222222
vernier = 0.296296
Gmin = 1.5731e-006
vernier = 0.395061
vernier = 0.526748
Gmin = 6.37528e-007
vernier = 0.702331
Gmin = 1.52968e-007
vernier = 0.936441
vernier = 1
Gmin = 1.88579e-008
Gmin = 2.02486e-009
Gmin = 2.17417e-010
Gmin = 2.3345e-011
Gmin = 2.50665e-012
Gmin = 2.69149e-013
Gmin = 0
Gmin stepping succeeded in finding the operating point.


Date: Thu Aug 16 11:16:29 2018
Total elapsed time: 0.307 seconds.

tnom = 27
temp = 27
method = modified trap
totiter = 4165
traniter = 3251
tranpoints = 1381
accept = 1267
rejected = 114
matrix size = 109
fillins = 88
solver = Normal
Thread vector: 7.0/3.9[2] 2.7/2.1[2] 1.9/1.7[2] 0.6/1.2[1]  2592/500
Matrix Compiler1: 13.43 KB object code size  2.4/1.4/[0.6]
Matrix Compiler2: 11.61 KB object code size  1.4/1.6/[1.1]

