Circuit: * C:\Users\KeithH\eagle\DEC340\xtra\LTspice\follow_hold.asc

Direct Newton iteration failed to find .op point.  (Use ".option noopiter" to skip.)
Starting Gmin stepping
Gmin = 10
Gmin = 1.07374
Gmin = 0.115292
Gmin = 0.0123794
Gmin = 0.00132923
Gmin = 0.000142725
Gmin = 1.5325e-005
vernier = 0.5
vernier = 0.25
vernier = 0.125
Gmin = 4.01735e-006
vernier = 0.0625
vernier = 0.0833333
Gmin = 3.42336e-006
vernier = 0.111111
vernier = 0.148148
Gmin = 2.59155e-006
vernier = 0.197531
Gmin = 1.67795e-006
vernier = 0.263374
vernier = 0.351165
Gmin = 8.17402e-007
vernier = 0.46822
vernier = 0.624294
Gmin = 2.66027e-007
vernier = 0.832392
Gmin = 4.7904e-008
vernier = 1
Gmin = 5.14365e-009
Gmin = 5.52295e-010
Gmin = 5.93023e-011
Gmin = 6.36753e-012
Gmin = 6.83709e-013
Gmin = 0
Gmin stepping succeeded in finding the operating point.


Date: Mon Jul 09 11:47:39 2018
Total elapsed time: 0.276 seconds.

tnom = 27
temp = 27
method = modified trap
totiter = 4301
traniter = 3233
tranpoints = 1368
accept = 1260
rejected = 108
matrix size = 109
fillins = 88
solver = Normal
Thread vector: 8.3/3.8[2] 4.6/2.1[2] 1.8/2.1[1] 0.5/1.1[1]  2592/500
Matrix Compiler1: 13.43 KB object code size  2.2/1.3/[1.1]
Matrix Compiler2: 11.61 KB object code size  2.0/1.6/[0.8]

