Circuit: * C:\Users\KeithH\eagle\DEC340\xtra\LTspice\follow_hold.asc

Direct Newton iteration failed to find .op point.  (Use ".option noopiter" to skip.)
Starting Gmin stepping
Gmin = 10
Gmin = 1.07374
Gmin = 0.115292
Gmin = 0.0123794
Gmin = 0.00132923
Gmin = 0.000142725
Gmin = 1.5325e-005
Gmin = 1.6455e-006
Gmin = 1.76685e-007
Gmin = 1.89714e-008
Gmin = 2.03704e-009
Gmin = 2.18725e-010
Gmin = 2.34854e-011
Gmin = 2.52173e-012
Gmin = 2.70769e-013
Gmin = 0
Gmin stepping succeeded in finding the operating point.


Date: Tue Jul 10 12:00:41 2018
Total elapsed time: 0.187 seconds.

tnom = 27
temp = 27
method = modified trap
totiter = 3788
traniter = 3263
tranpoints = 1377
accept = 1265
rejected = 112
matrix size = 109
fillins = 88
solver = Normal
Thread vector: 7.6/4.0[2] 3.6/2.2[2] 1.8/3.4[1] 0.5/1.1[1]  2592/500
Matrix Compiler1: 13.43 KB object code size  2.7/2.2/[0.6]
Matrix Compiler2: 11.61 KB object code size  1.4/1.8/[1.1]

